rawData/ieee730_1ph/PVSystem.dss
New PVsystem.PV41 Phases=1 Bus1=41.1 kV=0.24 kVA=0.997 irrad=1 Pmpp=0.831 %cutin=0.001 %cutout=0.001
New PVsystem.PV44 Phases=1 Bus1=44.1 kV=0.24 kVA=1.051 irrad=1 Pmpp=0.876 %cutin=0.001 %cutout=0.001
New PVsystem.PV48 Phases=1 Bus1=48.1 kV=0.24 kVA=1.814 irrad=1 Pmpp=1.512 %cutin=0.001 %cutout=0.001
New PVsystem.PV52 Phases=1 Bus1=52.1 kV=0.24 kVA=1.061 irrad=1 Pmpp=0.884 %cutin=0.001 %cutout=0.001
New PVsystem.PV59 Phases=1 Bus1=59.1 kV=0.24 kVA=1.246 irrad=1 Pmpp=1.038 %cutin=0.001 %cutout=0.001
New PVsystem.PV63 Phases=1 Bus1=63.1 kV=0.24 kVA=2.273 irrad=1 Pmpp=1.894 %cutin=0.001 %cutout=0.001
New PVsystem.PV68 Phases=1 Bus1=68.1 kV=0.24 kVA=2.340 irrad=1 Pmpp=1.95 %cutin=0.001 %cutout=0.001
New PVsystem.PV74 Phases=1 Bus1=74.1 kV=0.24 kVA=2.441 irrad=1 Pmpp=2.034 %cutin=0.001 %cutout=0.001
New PVsystem.PV77 Phases=1 Bus1=77.1 kV=0.24 kVA=1.589 irrad=1 Pmpp=1.324 %cutin=0.001 %cutout=0.001
New PVsystem.PV81 Phases=1 Bus1=81.1 kV=0.24 kVA=2.418 irrad=1 Pmpp=2.015 %cutin=0.001 %cutout=0.001
New PVsystem.PV87 Phases=1 Bus1=87.1 kV=0.24 kVA=1.664 irrad=1 Pmpp=1.387 %cutin=0.001 %cutout=0.001
New PVsystem.PV90 Phases=1 Bus1=90.1 kV=0.24 kVA=1.607 irrad=1 Pmpp=1.339 %cutin=0.001 %cutout=0.001
New PVsystem.PV94 Phases=1 Bus1=94.1 kV=0.24 kVA=3.527 irrad=1 Pmpp=2.939 %cutin=0.001 %cutout=0.001
New PVsystem.PV100 Phases=1 Bus1=100.1 kV=0.24 kVA=1.18 irrad=1 Pmpp=0.983 %cutin=0.001 %cutout=0.001
New PVsystem.PV103 Phases=1 Bus1=103.1 kV=0.24 kVA=1.795 irrad=1 Pmpp=1.496 %cutin=0.001 %cutout=0.001
New PVsystem.PV107 Phases=1 Bus1=107.1 kV=0.24 kVA=0.830 irrad=1 Pmpp=0.692 %cutin=0.001 %cutout=0.001
New PVsystem.PV115 Phases=1 Bus1=115.1 kV=0.24 kVA=1.873 irrad=1 Pmpp=1.561 %cutin=0.001 %cutout=0.001
New PVsystem.PV118 Phases=1 Bus1=118.1 kV=0.24 kVA=2.848 irrad=1 Pmpp=2.373 %cutin=0.001 %cutout=0.001
New PVsystem.PV122 Phases=1 Bus1=122.1 kV=0.24 kVA=0.828 irrad=1 Pmpp=0.690 %cutin=0.001 %cutout=0.001
New PVsystem.PV126 Phases=1 Bus1=126.1 kV=0.24 kVA=1.351 irrad=1 Pmpp=1.126 %cutin=0.001 %cutout=0.001
New PVsystem.PV134 Phases=1 Bus1=134.1 kV=0.24 kVA=1.86 irrad=1 Pmpp=1.55 %cutin=0.001 %cutout=0.001
New PVsystem.PV138 Phases=1 Bus1=138.1 kV=0.24 kVA=1.074 irrad=1 Pmpp=0.895 %cutin=0.001 %cutout=0.001
New PVsystem.PV142 Phases=1 Bus1=142.1 kV=0.24 kVA=1.014 irrad=1 Pmpp=0.845 %cutin=0.001 %cutout=0.001
New PVsystem.PV145 Phases=1 Bus1=145.1 kV=0.24 kVA=0.872 irrad=1 Pmpp=0.727 %cutin=0.001 %cutout=0.001
New PVsystem.PV153 Phases=1 Bus1=153.1 kV=0.24 kVA=0.808 irrad=1 Pmpp=0.673 %cutin=0.001 %cutout=0.001
New PVsystem.PV157 Phases=1 Bus1=157.1 kV=0.24 kVA=2.581 irrad=1 Pmpp=2.151 %cutin=0.001 %cutout=0.001
New PVsystem.PV160 Phases=1 Bus1=160.1 kV=0.24 kVA=0.778 irrad=1 Pmpp=0.648 %cutin=0.001 %cutout=0.001
New PVsystem.PV164 Phases=1 Bus1=164.1 kV=0.24 kVA=0.895 irrad=1 Pmpp=0.746 %cutin=0.001 %cutout=0.001
New PVsystem.PV172 Phases=1 Bus1=172.1 kV=0.24 kVA=1.523 irrad=1 Pmpp=1.269 %cutin=0.001 %cutout=0.001
New PVsystem.PV176 Phases=1 Bus1=176.1 kV=0.24 kVA=0.994 irrad=1 Pmpp=0.828 %cutin=0.001 %cutout=0.001
New PVsystem.PV180 Phases=1 Bus1=180.1 kV=0.24 kVA=1.374 irrad=1 Pmpp=1.145 %cutin=0.001 %cutout=0.001
New PVsystem.PV183 Phases=1 Bus1=183.1 kV=0.24 kVA=1.432 irrad=1 Pmpp=1.193 %cutin=0.001 %cutout=0.001
New PVsystem.PV189 Phases=1 Bus1=189.1 kV=0.24 kVA=0.932 irrad=1 Pmpp=0.777 %cutin=0.001 %cutout=0.001
New PVsystem.PV192 Phases=1 Bus1=192.1 kV=0.24 kVA=1.466 irrad=1 Pmpp=1.222 %cutin=0.001 %cutout=0.001
New PVsystem.PV196 Phases=1 Bus1=196.1 kV=0.24 kVA=2.474 irrad=1 Pmpp=2.062 %cutin=0.001 %cutout=0.001
New PVsystem.PV202 Phases=1 Bus1=202.1 kV=0.24 kVA=2.628 irrad=1 Pmpp=2.19 %cutin=0.001 %cutout=0.001
New PVsystem.PV206 Phases=1 Bus1=206.1 kV=0.24 kVA=2.588 irrad=1 Pmpp=2.157 %cutin=0.001 %cutout=0.001
New PVsystem.PV209 Phases=1 Bus1=209.1 kV=0.24 kVA=3.491 irrad=1 Pmpp=2.909 %cutin=0.001 %cutout=0.001
New PVsystem.PV214 Phases=1 Bus1=214.1 kV=0.24 kVA=1.578 irrad=1 Pmpp=1.315 %cutin=0.001 %cutout=0.001
New PVsystem.PV219 Phases=1 Bus1=219.1 kV=0.24 kVA=4.961 irrad=1 Pmpp=4.134 %cutin=0.001 %cutout=0.001
New PVsystem.PV225 Phases=1 Bus1=225.1 kV=0.24 kVA=3.719 irrad=1 Pmpp=3.099 %cutin=0.001 %cutout=0.001
New PVsystem.PV228 Phases=1 Bus1=228.1 kV=0.24 kVA=3.541 irrad=1 Pmpp=2.951 %cutin=0.001 %cutout=0.001
New PVsystem.PV232 Phases=1 Bus1=232.1 kV=0.24 kVA=3.637 irrad=1 Pmpp=3.031 %cutin=0.001 %cutout=0.001
New PVsystem.PV238 Phases=1 Bus1=238.1 kV=0.24 kVA=3.197 irrad=1 Pmpp=2.664 %cutin=0.001 %cutout=0.001
New PVsystem.PV241 Phases=1 Bus1=241.1 kV=0.24 kVA=2.495 irrad=1 Pmpp=2.079 %cutin=0.001 %cutout=0.001
New PVsystem.PV245 Phases=1 Bus1=245.1 kV=0.24 kVA=1.783 irrad=1 Pmpp=1.486 %cutin=0.001 %cutout=0.001
New PVsystem.PV253 Phases=1 Bus1=253.1 kV=0.24 kVA=1.693 irrad=1 Pmpp=1.411 %cutin=0.001 %cutout=0.001
New PVsystem.PV257 Phases=1 Bus1=257.1 kV=0.24 kVA=2.376 irrad=1 Pmpp=1.98 %cutin=0.001 %cutout=0.001
New PVsystem.PV261 Phases=1 Bus1=261.1 kV=0.24 kVA=2.762 irrad=1 Pmpp=2.302 %cutin=0.001 %cutout=0.001
New PVsystem.PV264 Phases=1 Bus1=264.1 kV=0.24 kVA=2.447 irrad=1 Pmpp=2.039 %cutin=0.001 %cutout=0.001
New PVsystem.PV270 Phases=1 Bus1=270.1 kV=0.24 kVA=3.936 irrad=1 Pmpp=3.28 %cutin=0.001 %cutout=0.001
New PVsystem.PV273 Phases=1 Bus1=273.1 kV=0.24 kVA=2.507 irrad=1 Pmpp=2.089 %cutin=0.001 %cutout=0.001
New PVsystem.PV277 Phases=1 Bus1=277.1 kV=0.24 kVA=3.672 irrad=1 Pmpp=3.06 %cutin=0.001 %cutout=0.001
New PVsystem.PV283 Phases=1 Bus1=283.1 kV=0.24 kVA=2.783 irrad=1 Pmpp=2.319 %cutin=0.001 %cutout=0.001
New PVsystem.PV286 Phases=1 Bus1=286.1 kV=0.24 kVA=2.178 irrad=1 Pmpp=1.815 %cutin=0.001 %cutout=0.001
New PVsystem.PV290 Phases=1 Bus1=290.1 kV=0.24 kVA=2.196 irrad=1 Pmpp=1.83 %cutin=0.001 %cutout=0.001
New PVsystem.PV296 Phases=1 Bus1=296.1 kV=0.24 kVA=1.903 irrad=1 Pmpp=1.586 %cutin=0.001 %cutout=0.001
New PVsystem.PV300 Phases=1 Bus1=300.1 kV=0.24 kVA=2.627 irrad=1 Pmpp=2.189 %cutin=0.001 %cutout=0.001
New PVsystem.PV303 Phases=1 Bus1=303.1 kV=0.24 kVA=2.677 irrad=1 Pmpp=2.231 %cutin=0.001 %cutout=0.001
New PVsystem.PV310 Phases=1 Bus1=310.1 kV=0.24 kVA=2.104 irrad=1 Pmpp=1.753 %cutin=0.001 %cutout=0.001
New PVsystem.PV314 Phases=1 Bus1=314.1 kV=0.24 kVA=4.469 irrad=1 Pmpp=3.724 %cutin=0.001 %cutout=0.001
New PVsystem.PV319 Phases=1 Bus1=319.1 kV=0.24 kVA=1.667 irrad=1 Pmpp=1.389 %cutin=0.001 %cutout=0.001
New PVsystem.PV326 Phases=1 Bus1=326.1 kV=0.24 kVA=2.364 irrad=1 Pmpp=1.97 %cutin=0.001 %cutout=0.001
New PVsystem.PV330 Phases=1 Bus1=330.1 kV=0.24 kVA=3.145 irrad=1 Pmpp=2.621 %cutin=0.001 %cutout=0.001
New PVsystem.PV335 Phases=1 Bus1=335.1 kV=0.24 kVA=1.813 irrad=1 Pmpp=1.511 %cutin=0.001 %cutout=0.001
New PVsystem.PV342 Phases=1 Bus1=342.1 kV=0.24 kVA=3.071 irrad=1 Pmpp=2.559 %cutin=0.001 %cutout=0.001
New PVsystem.PV347 Phases=1 Bus1=347.1 kV=0.24 kVA=3.731 irrad=1 Pmpp=3.109 %cutin=0.001 %cutout=0.001
New PVsystem.PV351 Phases=1 Bus1=351.1 kV=0.24 kVA=2.486 irrad=1 Pmpp=2.072 %cutin=0.001 %cutout=0.001
New PVsystem.PV358 Phases=1 Bus1=358.1 kV=0.24 kVA=3.028 irrad=1 Pmpp=2.523 %cutin=0.001 %cutout=0.001
New PVsystem.PV363 Phases=1 Bus1=363.1 kV=0.24 kVA=2.186 irrad=1 Pmpp=1.822 %cutin=0.001 %cutout=0.001
New PVsystem.PV367 Phases=1 Bus1=367.1 kV=0.24 kVA=2.318 irrad=1 Pmpp=1.932 %cutin=0.001 %cutout=0.001
New PVsystem.PV374 Phases=1 Bus1=374.1 kV=0.24 kVA=3.378 irrad=1 Pmpp=2.815 %cutin=0.001 %cutout=0.001
New PVsystem.PV379 Phases=1 Bus1=379.1 kV=0.24 kVA=8.419 irrad=1 Pmpp=7.016 %cutin=0.001 %cutout=0.001
New PVsystem.PV383 Phases=1 Bus1=383.1 kV=0.24 kVA=2.276 irrad=1 Pmpp=1.897 %cutin=0.001 %cutout=0.001
New PVsystem.PV390 Phases=1 Bus1=390.1 kV=0.24 kVA=3.166 irrad=1 Pmpp=2.638 %cutin=0.001 %cutout=0.001
New PVsystem.PV394 Phases=1 Bus1=394.1 kV=0.24 kVA=5.06 irrad=1 Pmpp=4.217 %cutin=0.001 %cutout=0.001
New PVsystem.PV399 Phases=1 Bus1=399.1 kV=0.24 kVA=4.07 irrad=1 Pmpp=3.392 %cutin=0.001 %cutout=0.001
New PVsystem.PV407 Phases=1 Bus1=407.1 kV=0.24 kVA=2.605 irrad=1 Pmpp=2.171 %cutin=0.001 %cutout=0.001
New PVsystem.PV411 Phases=1 Bus1=411.1 kV=0.24 kVA=1.330 irrad=1 Pmpp=1.108 %cutin=0.001 %cutout=0.001
New PVsystem.PV415 Phases=1 Bus1=415.1 kV=0.24 kVA=0.888 irrad=1 Pmpp=0.74 %cutin=0.001 %cutout=0.001
New PVsystem.PV418 Phases=1 Bus1=418.1 kV=0.24 kVA=1.465 irrad=1 Pmpp=1.221 %cutin=0.001 %cutout=0.001
New PVsystem.PV426 Phases=1 Bus1=426.1 kV=0.24 kVA=1.172 irrad=1 Pmpp=0.977 %cutin=0.001 %cutout=0.001
New PVsystem.PV430 Phases=1 Bus1=430.1 kV=0.24 kVA=1.566 irrad=1 Pmpp=1.305 %cutin=0.001 %cutout=0.001
New PVsystem.PV434 Phases=1 Bus1=434.1 kV=0.24 kVA=1.028 irrad=1 Pmpp=0.857 %cutin=0.001 %cutout=0.001
New PVsystem.PV437 Phases=1 Bus1=437.1 kV=0.24 kVA=1.136 irrad=1 Pmpp=0.947 %cutin=0.001 %cutout=0.001
New PVsystem.PV445 Phases=1 Bus1=445.1 kV=0.24 kVA=1.799 irrad=1 Pmpp=1.499 %cutin=0.001 %cutout=0.001
New PVsystem.PV449 Phases=1 Bus1=449.1 kV=0.24 kVA=1.739 irrad=1 Pmpp=1.449 %cutin=0.001 %cutout=0.001
New PVsystem.PV453 Phases=1 Bus1=453.1 kV=0.24 kVA=1.122 irrad=1 Pmpp=0.935 %cutin=0.001 %cutout=0.001
New PVsystem.PV456 Phases=1 Bus1=456.1 kV=0.24 kVA=1.706 irrad=1 Pmpp=1.422 %cutin=0.001 %cutout=0.001
New PVsystem.PV464 Phases=1 Bus1=464.1 kV=0.24 kVA=1.615 irrad=1 Pmpp=1.346 %cutin=0.001 %cutout=0.001
New PVsystem.PV468 Phases=1 Bus1=468.1 kV=0.24 kVA=1.435 irrad=1 Pmpp=1.196 %cutin=0.001 %cutout=0.001
New PVsystem.PV472 Phases=1 Bus1=472.1 kV=0.24 kVA=1.73 irrad=1 Pmpp=1.442 %cutin=0.001 %cutout=0.001
New PVsystem.PV475 Phases=1 Bus1=475.1 kV=0.24 kVA=1.481 irrad=1 Pmpp=1.234 %cutin=0.001 %cutout=0.001
New PVsystem.PV483 Phases=1 Bus1=483.1 kV=0.24 kVA=1.487 irrad=1 Pmpp=1.239 %cutin=0.001 %cutout=0.001
New PVsystem.PV486 Phases=1 Bus1=486.1 kV=0.24 kVA=2.414 irrad=1 Pmpp=2.012 %cutin=0.001 %cutout=0.001
New PVsystem.PV490 Phases=1 Bus1=490.1 kV=0.24 kVA=1.702 irrad=1 Pmpp=1.418 %cutin=0.001 %cutout=0.001
New PVsystem.PV494 Phases=1 Bus1=494.1 kV=0.24 kVA=1.429 irrad=1 Pmpp=1.191 %cutin=0.001 %cutout=0.001
New PVsystem.PV502 Phases=1 Bus1=502.1 kV=0.24 kVA=1.466 irrad=1 Pmpp=1.222 %cutin=0.001 %cutout=0.001
New PVsystem.PV506 Phases=1 Bus1=506.1 kV=0.24 kVA=1.465 irrad=1 Pmpp=1.221 %cutin=0.001 %cutout=0.001
New PVsystem.PV509 Phases=1 Bus1=509.1 kV=0.24 kVA=1.988 irrad=1 Pmpp=1.657 %cutin=0.001 %cutout=0.001
New PVsystem.PV513 Phases=1 Bus1=513.1 kV=0.24 kVA=1.632 irrad=1 Pmpp=1.36 %cutin=0.001 %cutout=0.001
New PVsystem.PV521 Phases=1 Bus1=521.1 kV=0.24 kVA=1.582 irrad=1 Pmpp=1.318 %cutin=0.001 %cutout=0.001
New PVsystem.PV525 Phases=1 Bus1=525.1 kV=0.24 kVA=1.517 irrad=1 Pmpp=1.264 %cutin=0.001 %cutout=0.001
New PVsystem.PV529 Phases=1 Bus1=529.1 kV=0.24 kVA=1.776 irrad=1 Pmpp=1.48 %cutin=0.001 %cutout=0.001
New PVsystem.PV532 Phases=1 Bus1=532.1 kV=0.24 kVA=1.742 irrad=1 Pmpp=1.452 %cutin=0.001 %cutout=0.001
New PVsystem.PV540 Phases=1 Bus1=540.1 kV=0.24 kVA=1.817 irrad=1 Pmpp=1.514 %cutin=0.001 %cutout=0.001
New PVsystem.PV544 Phases=1 Bus1=544.1 kV=0.24 kVA=1.835 irrad=1 Pmpp=1.529 %cutin=0.001 %cutout=0.001
New PVsystem.PV548 Phases=1 Bus1=548.1 kV=0.24 kVA=1.754 irrad=1 Pmpp=1.462 %cutin=0.001 %cutout=0.001
New PVsystem.PV551 Phases=1 Bus1=551.1 kV=0.24 kVA=2.044 irrad=1 Pmpp=1.703 %cutin=0.001 %cutout=0.001
New PVsystem.PV557 Phases=1 Bus1=557.1 kV=0.24 kVA=2.011 irrad=1 Pmpp=1.676 %cutin=0.001 %cutout=0.001
New PVsystem.PV561 Phases=1 Bus1=561.1 kV=0.24 kVA=1.945 irrad=1 Pmpp=1.621 %cutin=0.001 %cutout=0.001
New PVsystem.PV564 Phases=1 Bus1=564.1 kV=0.24 kVA=2.04 irrad=1 Pmpp=1.7 %cutin=0.001 %cutout=0.001
New PVsystem.PV570 Phases=1 Bus1=570.1 kV=0.24 kVA=1.597 irrad=1 Pmpp=1.331 %cutin=0.001 %cutout=0.001
New PVsystem.PV573 Phases=1 Bus1=573.1 kV=0.24 kVA=1.646 irrad=1 Pmpp=1.372 %cutin=0.001 %cutout=0.001
New PVsystem.PV577 Phases=1 Bus1=577.1 kV=0.24 kVA=4.856 irrad=1 Pmpp=4.047 %cutin=0.001 %cutout=0.001
New PVsystem.PV583 Phases=1 Bus1=583.1 kV=0.24 kVA=1.801 irrad=1 Pmpp=1.501 %cutin=0.001 %cutout=0.001
New PVsystem.PV586 Phases=1 Bus1=586.1 kV=0.24 kVA=3.119 irrad=1 Pmpp=2.599 %cutin=0.001 %cutout=0.001
New PVsystem.PV590 Phases=1 Bus1=590.1 kV=0.24 kVA=2.659 irrad=1 Pmpp=2.216 %cutin=0.001 %cutout=0.001
New PVsystem.PV598 Phases=1 Bus1=598.1 kV=0.24 kVA=1.848 irrad=1 Pmpp=1.54 %cutin=0.001 %cutout=0.001
New PVsystem.PV602 Phases=1 Bus1=602.1 kV=0.24 kVA=3.064 irrad=1 Pmpp=2.553 %cutin=0.001 %cutout=0.001
New PVsystem.PV606 Phases=1 Bus1=606.1 kV=0.24 kVA=1.75 irrad=1 Pmpp=1.458 %cutin=0.001 %cutout=0.001
New PVsystem.PV609 Phases=1 Bus1=609.1 kV=0.24 kVA=1.055 irrad=1 Pmpp=0.879 %cutin=0.001 %cutout=0.001
New PVsystem.PV617 Phases=1 Bus1=617.1 kV=0.24 kVA=0.881 irrad=1 Pmpp=0.734 %cutin=0.001 %cutout=0.001
New PVsystem.PV621 Phases=1 Bus1=621.1 kV=0.24 kVA=0.830 irrad=1 Pmpp=0.692 %cutin=0.001 %cutout=0.001
New PVsystem.PV625 Phases=1 Bus1=625.1 kV=0.24 kVA=0.986 irrad=1 Pmpp=0.822 %cutin=0.001 %cutout=0.001
New PVsystem.PV628 Phases=1 Bus1=628.1 kV=0.24 kVA=1.246 irrad=1 Pmpp=1.038 %cutin=0.001 %cutout=0.001
New PVsystem.PV636 Phases=1 Bus1=636.1 kV=0.24 kVA=2.848 irrad=1 Pmpp=2.373 %cutin=0.001 %cutout=0.001
New PVsystem.PV641 Phases=1 Bus1=641.1 kV=0.24 kVA=3.103 irrad=1 Pmpp=2.586 %cutin=0.001 %cutout=0.001
New PVsystem.PV645 Phases=1 Bus1=645.1 kV=0.24 kVA=2.441 irrad=1 Pmpp=2.034 %cutin=0.001 %cutout=0.001
New PVsystem.PV647 Phases=1 Bus1=647.1 kV=0.24 kVA=2.015 irrad=1 Pmpp=1.679 %cutin=0.001 %cutout=0.001
New PVsystem.PV654 Phases=1 Bus1=654.1 kV=0.24 kVA=1.589 irrad=1 Pmpp=1.324 %cutin=0.001 %cutout=0.001
New PVsystem.PV658 Phases=1 Bus1=658.1 kV=0.24 kVA=2.418 irrad=1 Pmpp=2.015 %cutin=0.001 %cutout=0.001
New PVsystem.PV663 Phases=1 Bus1=663.1 kV=0.24 kVA=1.651 irrad=1 Pmpp=1.376 %cutin=0.001 %cutout=0.001
New PVsystem.PV670 Phases=1 Bus1=670.1 kV=0.24 kVA=1.447 irrad=1 Pmpp=1.206 %cutin=0.001 %cutout=0.001
New PVsystem.PV672 Phases=1 Bus1=672.1 kV=0.24 kVA=3.098 irrad=1 Pmpp=2.582 %cutin=0.001 %cutout=0.001
New PVsystem.PV679 Phases=1 Bus1=679.1 kV=0.24 kVA=3.428 irrad=1 Pmpp=2.857 %cutin=0.001 %cutout=0.001
New PVsystem.PV687 Phases=1 Bus1=687.1 kV=0.24 kVA=0.830 irrad=1 Pmpp=0.692 %cutin=0.001 %cutout=0.001
New PVsystem.PV690 Phases=1 Bus1=690.1 kV=0.24 kVA=0.954 irrad=1 Pmpp=0.795 %cutin=0.001 %cutout=0.001
New PVsystem.PV694 Phases=1 Bus1=694.1 kV=0.24 kVA=0.840 irrad=1 Pmpp=0.7 %cutin=0.001 %cutout=0.001
New PVsystem.PV698 Phases=1 Bus1=698.1 kV=0.24 kVA=1.614 irrad=1 Pmpp=1.345 %cutin=0.001 %cutout=0.001
New PVsystem.PV706 Phases=1 Bus1=706.1 kV=0.24 kVA=1.351 irrad=1 Pmpp=1.126 %cutin=0.001 %cutout=0.001
New PVsystem.PV709 Phases=1 Bus1=709.1 kV=0.24 kVA=1.076 irrad=1 Pmpp=0.897 %cutin=0.001 %cutout=0.001
New PVsystem.PV713 Phases=1 Bus1=713.1 kV=0.24 kVA=0.775 irrad=1 Pmpp=0.646 %cutin=0.001 %cutout=0.001
New PVsystem.PV717 Phases=1 Bus1=717.1 kV=0.24 kVA=1.142 irrad=1 Pmpp=0.952 %cutin=0.001 %cutout=0.001
New PVsystem.PV723 Phases=1 Bus1=723.1 kV=0.24 kVA=0.872 irrad=1 Pmpp=0.727 %cutin=0.001 %cutout=0.001
New PVsystem.PV726 Phases=1 Bus1=726.1 kV=0.24 kVA=1.680 irrad=1 Pmpp=1.4 %cutin=0.001 %cutout=0.001
New PVsystem.PV730 Phases=1 Bus1=730.1 kV=0.24 kVA=0.868 irrad=1 Pmpp=0.723 %cutin=0.001 %cutout=0.001
